Version 4
SHEET 1 880 680
WIRE 192 48 128 48
WIRE 320 48 256 48
WIRE 128 128 128 48
WIRE 144 128 128 128
WIRE 240 128 224 128
WIRE 320 128 320 48
WIRE 384 128 320 128
WIRE 384 144 384 128
WIRE -16 160 -96 160
WIRE 128 192 128 128
WIRE -96 208 -96 160
WIRE -16 240 -16 160
WIRE 128 304 128 288
WIRE 384 304 384 224
WIRE -96 320 -96 288
WIRE 128 432 128 384
FLAG 384 304 0
FLAG -96 320 0
FLAG 128 432 0
SYMBOL ind 336 112 R90
WINDOW 0 5 56 VBottom 2
WINDOW 3 32 56 VTop 2
SYMATTR InstName L1
SYMATTR Value 55m
SYMBOL diode 192 64 R270
WINDOW 0 32 32 VTop 2
WINDOW 3 0 32 VBottom 2
SYMATTR InstName D1
SYMBOL voltage -96 192 R0
WINDOW 123 0 0 Left 0
WINDOW 39 0 0 Left 0
WINDOW 3 -130 103 Left 2
SYMATTR InstName V1
SYMATTR Value PULSE(0 5 .5 .01u .01 1)
SYMBOL voltage 384 128 R0
WINDOW 123 0 0 Left 0
WINDOW 39 0 0 Left 0
SYMATTR InstName V2
SYMATTR Value 12
SYMBOL npn 64 192 R0
SYMATTR InstName Q1
SYMATTR Value MyBJT
SYMBOL res -32 256 R270
WINDOW 0 32 56 VTop 2
WINDOW 3 0 56 VBottom 2
SYMATTR InstName R2
SYMATTR Value 5k
SYMBOL res 240 112 R90
WINDOW 0 0 56 VBottom 2
WINDOW 3 32 56 VTop 2
SYMATTR InstName R1
SYMATTR Value 33
SYMBOL res 112 288 R0
SYMATTR InstName R3
SYMATTR Value 10
TEXT -112 80 Left 2 !.tran 1
TEXT 264 400 Left 2 !.step param MyBF list 50 100 200
TEXT 272 360 Left 2 !.MODEL MyBJT AKO: 2N2222 (Bf=MyBF)
