Version 4
SHEET 1 880 680
WIRE 400 16 128 16
WIRE 400 48 400 16
WIRE 128 128 128 16
WIRE 144 128 128 128
WIRE 160 128 144 128
WIRE 272 128 256 128
WIRE 320 128 272 128
WIRE -96 160 -112 160
WIRE -32 160 -96 160
WIRE 80 160 48 160
WIRE 160 160 80 160
WIRE 288 160 256 160
WIRE 320 160 320 128
WIRE 400 160 400 128
WIRE -112 176 -112 160
WIRE 288 240 288 160
WIRE 80 272 80 240
WIRE -112 288 -112 256
FLAG 320 160 0
FLAG 400 160 0
FLAG -112 288 0
FLAG 80 272 0
FLAG 288 240 0
FLAG -96 160 SIGNAL
FLAG 144 128 D
FLAG 272 128 S
SYMBOL AutoGenerated\\BS_MMBF170 208 144 R0
SYMATTR InstName U1
SYMBOL res 64 144 R90
WINDOW 0 0 56 VBottom 2
WINDOW 3 32 56 VTop 2
SYMATTR InstName R1
SYMATTR Value 100
SYMBOL res 64 144 R0
SYMATTR InstName R2
SYMATTR Value 10k
SYMBOL voltage -112 160 R0
WINDOW 123 0 0 Left 0
WINDOW 39 0 0 Left 0
SYMATTR InstName V1
SYMATTR Value PULSE(0 2.1 .5 .1 0 1)
SYMBOL voltage 400 32 R0
WINDOW 123 0 0 Left 0
WINDOW 39 0 0 Left 0
SYMATTR InstName V2
SYMATTR Value 12
TEXT -112 32 Left 2 !.tran 1
